29853771
  -OEChem-08202308163D

 58 60  0     0  0  0  0  0  0999 V2000
    4.5081   -0.2464    1.1274 S   0  0  0  0  0  0  0  0  0  0  0  0
   -4.8919   -1.8759    0.2000 O   0  0  0  0  0  0  0  0  0  0  0  0
   -1.3063    4.2484   -0.3518 O   0  0  0  0  0  0  0  0  0  0  0  0
   -6.4573   -0.2100    0.1872 O   0  0  0  0  0  0  0  0  0  0  0  0
    3.9455   -0.1965    2.4639 O   0  0  0  0  0  0  0  0  0  0  0  0
    5.8872   -0.6547    0.9414 O   0  0  0  0  0  0  0  0  0  0  0  0
   -2.1281    2.0653   -0.4966 N   0  0  0  0  0  0  0  0  0  0  0  0
   -4.1972    0.3170    0.3033 N   0  0  0  0  0  0  0  0  0  0  0  0
    4.2280    1.2625    0.3446 N   0  0  0  0  0  0  0  0  0  0  0  0
   -3.5220    2.4796   -0.6654 C   0  0  0  0  0  0  0  0  0  0  0  0
   -1.9132    0.6130   -0.5713 C   0  0  0  0  0  0  0  0  0  0  0  0
   -4.4172    1.7645    0.3422 C   0  0  0  0  0  0  0  0  0  0  0  0
   -2.7983   -0.1097    0.4403 C   0  0  0  0  0  0  0  0  0  0  0  0
   -1.1308    3.0310   -0.3523 C   0  0  0  0  0  0  0  0  0  0  0  0
   -5.2799   -0.5626    0.2266 C   0  0  0  0  0  0  0  0  0  0  0  0
    0.2530    2.5741   -0.1728 C   0  0  0  0  0  0  0  0  0  0  0  0
    1.0708    2.3707   -1.2844 C   0  0  0  0  0  0  0  0  0  0  0  0
    0.7501    2.3442    1.1100 C   0  0  0  0  0  0  0  0  0  0  0  0
    2.8823    1.7071    0.1696 C   0  0  0  0  0  0  0  0  0  0  0  0
    2.3853    1.9372   -1.1132 C   0  0  0  0  0  0  0  0  0  0  0  0
    2.0647    1.9106    1.2813 C   0  0  0  0  0  0  0  0  0  0  0  0
    3.4887   -1.3417    0.1817 C   0  0  0  0  0  0  0  0  0  0  0  0
    3.7560   -1.5958   -1.1635 C   0  0  0  0  0  0  0  0  0  0  0  0
    2.4021   -1.9554    0.8048 C   0  0  0  0  0  0  0  0  0  0  0  0
   -5.9445   -2.8440    0.1223 C   0  0  0  0  0  0  0  0  0  0  0  0
    1.5830   -2.8234    0.0828 C   0  0  0  0  0  0  0  0  0  0  0  0
    2.9368   -2.4636   -1.8856 C   0  0  0  0  0  0  0  0  0  0  0  0
    1.8503   -3.0773   -1.2626 C   0  0  0  0  0  0  0  0  0  0  0  0
    4.9119   -0.9561   -1.8608 C   0  0  0  0  0  0  0  0  0  0  0  0
   -5.3384   -4.2311    0.1028 C   0  0  0  0  0  0  0  0  0  0  0  0
    0.4211   -3.4808    0.7481 C   0  0  0  0  0  0  0  0  0  0  0  0
   -3.8135    2.2185   -1.6898 H   0  0  0  0  0  0  0  0  0  0  0  0
   -3.6248    3.5636   -0.5556 H   0  0  0  0  0  0  0  0  0  0  0  0
   -0.8686    0.3439   -0.4027 H   0  0  0  0  0  0  0  0  0  0  0  0
   -2.1718    0.3057   -1.5918 H   0  0  0  0  0  0  0  0  0  0  0  0
   -4.1820    2.0939    1.3614 H   0  0  0  0  0  0  0  0  0  0  0  0
   -5.4673    2.0041    0.1487 H   0  0  0  0  0  0  0  0  0  0  0  0
   -2.6936   -1.1912    0.3194 H   0  0  0  0  0  0  0  0  0  0  0  0
   -2.4902    0.1411    1.4624 H   0  0  0  0  0  0  0  0  0  0  0  0
    0.6934    2.5471   -2.2883 H   0  0  0  0  0  0  0  0  0  0  0  0
    0.1230    2.5056    1.9830 H   0  0  0  0  0  0  0  0  0  0  0  0
    3.0115    1.7859   -1.9881 H   0  0  0  0  0  0  0  0  0  0  0  0
    2.4336    1.7705    2.2923 H   0  0  0  0  0  0  0  0  0  0  0  0
    4.8945    1.5535   -0.3807 H   0  0  0  0  0  0  0  0  0  0  0  0
    2.1757   -1.7731    1.8516 H   0  0  0  0  0  0  0  0  0  0  0  0
   -6.6012   -2.7394    0.9931 H   0  0  0  0  0  0  0  0  0  0  0  0
   -6.5236   -2.6803   -0.7932 H   0  0  0  0  0  0  0  0  0  0  0  0
    3.1295   -2.6737   -2.9344 H   0  0  0  0  0  0  0  0  0  0  0  0
    1.2209   -3.7525   -1.8363 H   0  0  0  0  0  0  0  0  0  0  0  0
    4.8192    0.1281   -1.9131 H   0  0  0  0  0  0  0  0  0  0  0  0
    5.8651   -1.2419   -1.4097 H   0  0  0  0  0  0  0  0  0  0  0  0
    4.9696   -1.2952   -2.9028 H   0  0  0  0  0  0  0  0  0  0  0  0
    0.7578   -4.3520    1.3187 H   0  0  0  0  0  0  0  0  0  0  0  0
   -0.0829   -2.7845    1.4272 H   0  0  0  0  0  0  0  0  0  0  0  0
   -0.3250   -3.8118    0.0177 H   0  0  0  0  0  0  0  0  0  0  0  0
   -4.6640   -4.3447   -0.7524 H   0  0  0  0  0  0  0  0  0  0  0  0
   -4.7403   -4.4027    1.0038 H   0  0  0  0  0  0  0  0  0  0  0  0
   -6.1163   -4.9972    0.0437 H   0  0  0  0  0  0  0  0  0  0  0  0
  1  5  2  0  0  0  0
  1  6  2  0  0  0  0
  1  9  1  0  0  0  0
  1 22  1  0  0  0  0
  2 15  1  0  0  0  0
  2 25  1  0  0  0  0
  3 14  2  0  0  0  0
  4 15  2  0  0  0  0
  7 10  1  0  0  0  0
  7 11  1  0  0  0  0
  7 14  1  0  0  0  0
  8 12  1  0  0  0  0
  8 13  1  0  0  0  0
  8 15  1  0  0  0  0
  9 19  1  0  0  0  0
  9 44  1  0  0  0  0
 10 12  1  0  0  0  0
 10 32  1  0  0  0  0
 10 33  1  0  0  0  0
 11 13  1  0  0  0  0
 11 34  1  0  0  0  0
 11 35  1  0  0  0  0
 12 36  1  0  0  0  0
 12 37  1  0  0  0  0
 13 38  1  0  0  0  0
 13 39  1  0  0  0  0
 14 16  1  0  0  0  0
 16 17  2  0  0  0  0
 16 18  1  0  0  0  0
 17 20  1  0  0  0  0
 17 40  1  0  0  0  0
 18 21  2  0  0  0  0
 18 41  1  0  0  0  0
 19 20  2  0  0  0  0
 19 21  1  0  0  0  0
 20 42  1  0  0  0  0
 21 43  1  0  0  0  0
 22 23  2  0  0  0  0
 22 24  1  0  0  0  0
 23 27  1  0  0  0  0
 23 29  1  0  0  0  0
 24 26  2  0  0  0  0
 24 45  1  0  0  0  0
 25 30  1  0  0  0  0
 25 46  1  0  0  0  0
 25 47  1  0  0  0  0
 26 28  1  0  0  0  0
 26 31  1  0  0  0  0
 27 28  2  0  0  0  0
 27 48  1  0  0  0  0
 28 49  1  0  0  0  0
 29 50  1  0  0  0  0
 29 51  1  0  0  0  0
 29 52  1  0  0  0  0
 30 56  1  0  0  0  0
 30 57  1  0  0  0  0
 30 58  1  0  0  0  0
 31 53  1  0  0  0  0
 31 54  1  0  0  0  0
 31 55  1  0  0  0  0
M  END
> <PUBCHEM_COMPOUND_CID>
29853771

> <PUBCHEM_CONFORMER_RMSD>
1

> <PUBCHEM_CONFORMER_DIVERSEORDER>
1
65
25
125
52
205
178
164
89
128
216
192
190
35
99
93
121
200
167
195
126
3
203
174
221
146
132
158
104
196
156
210
71
11
140
153
134
194
106
149
173
83
193
49
13
79
188
159
22
45
162
72
27
161
217
8
9
44
187
70
208
29
101
211
85
168
95
151
185
129
109
113
51
182
62
59
191
107
169
198
136
220
116
5
144
36
56
181
142
43
145
96
10
218
160
155
175
87
197
110
119
7
61
201
26
127
23
170
33
31
166
64
209
12
114
39
69
148
6
154
57
75
67
90
77
86
214
55
108
46
172
207
84
177
186
32
131
30
80
34
15
97
81
204
24
38
135
123
53
82
103
66
143
180
139
112
147
189
21
88
111
199
16
40
2
157
20
141
152
92
163
73
76
133
60
212
138
37
165
117
171
137
48
118
176
14
105
28
150
63
19
219
4
184
115
98
179
68
124
74
183
206
100
215
213
122
78
102
50
120
91
202
42
41
94
58
47
54
17
130
18

> <PUBCHEM_MMFF94_PARTIAL_CHARGES>
38
1 1.45
10 0.3
11 0.3
12 0.3
13 0.3
14 0.54
15 0.78
16 0.09
17 -0.15
18 -0.15
19 0.2
2 -0.43
20 -0.15
21 -0.15
22 -0.01
23 -0.14
24 -0.15
25 0.28
26 -0.14
27 -0.15
28 -0.15
29 0.14
3 -0.57
31 0.14
4 -0.57
40 0.15
41 0.15
42 0.15
43 0.15
44 0.42
45 0.15
48 0.15
49 0.15
5 -0.65
6 -0.65
7 -0.66
8 -0.66
9 -0.76

> <PUBCHEM_EFFECTIVE_ROTOR_COUNT>
9.2

> <PUBCHEM_PHARMACOPHORE_FEATURES>
8
1 3 acceptor
1 4 acceptor
1 5 acceptor
1 6 acceptor
1 9 donor
6 16 17 18 19 20 21 rings
6 22 23 24 26 27 28 rings
6 7 8 10 11 12 13 rings

> <PUBCHEM_HEAVY_ATOM_COUNT>
31

> <PUBCHEM_ATOM_DEF_STEREO_COUNT>
0

> <PUBCHEM_ATOM_UDEF_STEREO_COUNT>
0

> <PUBCHEM_BOND_DEF_STEREO_COUNT>
0

> <PUBCHEM_BOND_UDEF_STEREO_COUNT>
0

> <PUBCHEM_ISOTOPIC_ATOM_COUNT>
0

> <PUBCHEM_COMPONENT_COUNT>
1

> <PUBCHEM_CACTVS_TAUTO_COUNT>
3

> <PUBCHEM_CONFORMER_ID>
01C7884B00000001

> <PUBCHEM_MMFF94_ENERGY>
72.5814

> <PUBCHEM_FEATURE_SELFOVERLAP>
40.616

> <PUBCHEM_SHAPE_FINGERPRINT>
10838868 158 16596480113306283323
10864689 126 18266181626215986311
11093857 5 18197779895439148250
11796584 16 18336540500068342849
11963148 33 18116142278259229258
13150687 139 17972062446765487860
13383661 66 17773061716298801718
13402501 40 18410291406537165186
13561361 72 18412260670549262167
13583140 156 17486465154455002752
1361 2 18048314741501599731
1361 87 17840599097326965246
14251740 57 18201445791290784671
14725015 67 18335690654931097258
17492 54 17970659383891098204
17909252 39 17986966163143361806
18608769 82 18412831265807785958
19301679 30 18262528087121852193
1979834 28 18272931647803508250
20764821 26 18188506764436085883
21133410 90 17200522015321787698
21197605 99 18124878107956749594
21304303 282 16309110671970410532
21315759 227 18335975372560675965
23559900 14 18338795598628064140
325973 47 17832147491395909515
338550 245 18265051512787593927
373842 8 18049724319857252827
437795 51 17917990629490487032
463206 1 18339080509794083623
484989 97 18056768637970132998
508706 21 18261682527555885147
5309563 4 18410572929106513029
6823239 73 18198906907763625742

> <PUBCHEM_SHAPE_MULTIPOLES>
597.53
13.19
5.36
1.46
14.57
1.26
0.01
8.79
1.33
3.81
-0.75
-2.36
0.25
1.35

> <PUBCHEM_SHAPE_SELFOVERLAP>
1247.503

> <PUBCHEM_SHAPE_VOLUME>
340

> <PUBCHEM_COORDINATE_TYPE>
2
5
10

$$$$
