1285085
  -OEChem-08202312243D

 40 43  0     0  0  0  0  0  0999 V2000
    4.2467   -0.2652   -2.1840 Cl  0  0  0  0  0  0  0  0  0  0  0  0
    1.6160   -2.3326    0.2332 O   0  0  0  0  0  0  0  0  0  0  0  0
   -1.4190   -1.6810   -1.0924 N   0  0  0  0  0  0  0  0  0  0  0  0
   -0.3888    0.2901   -0.3245 N   0  0  0  0  0  0  0  0  0  0  0  0
   -1.7125    2.1358    0.4805 N   0  0  0  0  0  0  0  0  0  0  0  0
    0.6304    2.2550    0.4424 N   0  0  0  0  0  0  0  0  0  0  0  0
   -2.8013    0.1445   -0.2942 C   0  0  0  0  0  0  0  0  0  0  0  0
   -1.5364   -0.3754   -0.5542 C   0  0  0  0  0  0  0  0  0  0  0  0
   -2.8393    1.4432    0.2389 C   0  0  0  0  0  0  0  0  0  0  0  0
   -0.1591   -2.2826   -1.3856 C   0  0  0  0  0  0  0  0  0  0  0  0
   -0.5486    1.5218    0.1856 C   0  0  0  0  0  0  0  0  0  0  0  0
   -3.9859   -0.5703   -0.5428 C   0  0  0  0  0  0  0  0  0  0  0  0
    0.4287   -2.8523   -0.1306 C   0  0  0  0  0  0  0  0  0  0  0  0
   -4.0875    1.9973    0.5121 C   0  0  0  0  0  0  0  0  0  0  0  0
   -5.2196    0.0077   -0.2604 C   0  0  0  0  0  0  0  0  0  0  0  0
   -5.2701    1.2929    0.2676 C   0  0  0  0  0  0  0  0  0  0  0  0
    1.9946    1.9562    0.2684 C   0  0  0  0  0  0  0  0  0  0  0  0
   -0.0066   -3.8068    0.7282 C   0  0  0  0  0  0  0  0  0  0  0  0
    2.3988    1.0934   -0.7525 C   0  0  0  0  0  0  0  0  0  0  0  0
    2.9487    2.5213    1.1172 C   0  0  0  0  0  0  0  0  0  0  0  0
    0.9960   -3.8973    1.7230 C   0  0  0  0  0  0  0  0  0  0  0  0
    1.9612   -2.9805    1.3769 C   0  0  0  0  0  0  0  0  0  0  0  0
    3.7510    0.7970   -0.9239 C   0  0  0  0  0  0  0  0  0  0  0  0
    4.3008    2.2250    0.9458 C   0  0  0  0  0  0  0  0  0  0  0  0
    4.7020    1.3630   -0.0747 C   0  0  0  0  0  0  0  0  0  0  0  0
    0.5295   -1.5851   -1.8762 H   0  0  0  0  0  0  0  0  0  0  0  0
   -0.3149   -3.1051   -2.0937 H   0  0  0  0  0  0  0  0  0  0  0  0
   -2.1765   -2.3245   -0.8943 H   0  0  0  0  0  0  0  0  0  0  0  0
   -3.9941   -1.5699   -0.9654 H   0  0  0  0  0  0  0  0  0  0  0  0
   -4.1545    3.0018    0.9256 H   0  0  0  0  0  0  0  0  0  0  0  0
    0.4495    3.1158    0.9500 H   0  0  0  0  0  0  0  0  0  0  0  0
   -6.1372   -0.5396   -0.4535 H   0  0  0  0  0  0  0  0  0  0  0  0
   -6.2291    1.7519    0.4903 H   0  0  0  0  0  0  0  0  0  0  0  0
   -0.9231   -4.3754    0.6648 H   0  0  0  0  0  0  0  0  0  0  0  0
    1.6874    0.6749   -1.4574 H   0  0  0  0  0  0  0  0  0  0  0  0
    2.6495    3.1938    1.9173 H   0  0  0  0  0  0  0  0  0  0  0  0
    1.0130   -4.5490    2.5846 H   0  0  0  0  0  0  0  0  0  0  0  0
    2.9025   -2.6833    1.8158 H   0  0  0  0  0  0  0  0  0  0  0  0
    5.0413    2.6652    1.6072 H   0  0  0  0  0  0  0  0  0  0  0  0
    5.7591    1.1412   -0.1964 H   0  0  0  0  0  0  0  0  0  0  0  0
  1 23  1  0  0  0  0
  2 13  1  0  0  0  0
  2 22  1  0  0  0  0
  3  8  1  0  0  0  0
  3 10  1  0  0  0  0
  3 28  1  0  0  0  0
  4  8  2  0  0  0  0
  4 11  1  0  0  0  0
  5  9  1  0  0  0  0
  5 11  2  0  0  0  0
  6 11  1  0  0  0  0
  6 17  1  0  0  0  0
  6 31  1  0  0  0  0
  7  8  1  0  0  0  0
  7  9  1  0  0  0  0
  7 12  2  0  0  0  0
  9 14  2  0  0  0  0
 10 13  1  0  0  0  0
 10 26  1  0  0  0  0
 10 27  1  0  0  0  0
 12 15  1  0  0  0  0
 12 29  1  0  0  0  0
 13 18  2  0  0  0  0
 14 16  1  0  0  0  0
 14 30  1  0  0  0  0
 15 16  2  0  0  0  0
 15 32  1  0  0  0  0
 16 33  1  0  0  0  0
 17 19  2  0  0  0  0
 17 20  1  0  0  0  0
 18 21  1  0  0  0  0
 18 34  1  0  0  0  0
 19 23  1  0  0  0  0
 19 35  1  0  0  0  0
 20 24  2  0  0  0  0
 20 36  1  0  0  0  0
 21 22  2  0  0  0  0
 21 37  1  0  0  0  0
 22 38  1  0  0  0  0
 23 25  2  0  0  0  0
 24 25  1  0  0  0  0
 24 39  1  0  0  0  0
 25 40  1  0  0  0  0
M  END
> <PUBCHEM_COMPOUND_CID>
1285085

> <PUBCHEM_CONFORMER_RMSD>
0.8

> <PUBCHEM_CONFORMER_DIVERSEORDER>
1
30
148
114
86
112
90
96
120
97
73
81
100
48
54
63
28
75
56
121
25
57
101
41
49
16
94
52
38
39
64
123
98
104
6
145
135
42
43
60
61
74
67
13
119
125
85
34
59
117
95
62
20
109
127
124
110
126
3
137
76
12
142
83
70
102
23
69
80
45
129
15
115
71
44
106
77
144
58
4
139
37
35
66
7
118
130
29
143
84
51
8
132
55
134
65
82
31
122
27
133
68
47
146
26
78
18
50
116
136
131
24
113
53
87
91
40
11
128
2
103
21
89
93
32
36
46
88
22
111
138
92
9
79
140
19
108
105
147
5
72
17
107
14
10
141
99
33

> <PUBCHEM_MMFF94_PARTIAL_CHARGES>
37
1 -0.18
10 0.55
11 0.72
12 -0.15
13 -0.04
14 -0.15
15 -0.15
16 -0.15
17 0.1
18 -0.15
19 -0.15
2 -0.28
20 -0.15
21 -0.15
22 -0.01
23 0.18
24 -0.15
25 -0.15
28 0.4
29 0.15
3 -0.87
30 0.15
31 0.4
32 0.15
33 0.15
34 0.15
35 0.15
36 0.15
37 0.15
38 0.15
39 0.15
4 -0.62
40 0.15
5 -0.62
6 -0.6
8 0.41
9 0.31

> <PUBCHEM_EFFECTIVE_ROTOR_COUNT>
5

> <PUBCHEM_PHARMACOPHORE_FEATURES>
8
1 2 acceptor
1 3 donor
1 6 donor
4 4 5 6 11 cation
5 2 13 18 21 22 rings
6 17 19 20 23 24 25 rings
6 4 5 7 8 9 11 rings
6 7 9 12 14 15 16 rings

> <PUBCHEM_HEAVY_ATOM_COUNT>
25

> <PUBCHEM_ATOM_DEF_STEREO_COUNT>
0

> <PUBCHEM_ATOM_UDEF_STEREO_COUNT>
0

> <PUBCHEM_BOND_DEF_STEREO_COUNT>
0

> <PUBCHEM_BOND_UDEF_STEREO_COUNT>
0

> <PUBCHEM_ISOTOPIC_ATOM_COUNT>
0

> <PUBCHEM_COMPONENT_COUNT>
1

> <PUBCHEM_CACTVS_TAUTO_COUNT>
6

> <PUBCHEM_CONFORMER_ID>
00139BDD00000001

> <PUBCHEM_MMFF94_ENERGY>
79.3754

> <PUBCHEM_FEATURE_SELFOVERLAP>
40.629

> <PUBCHEM_SHAPE_FINGERPRINT>
10190108 129 18190193467509410891
10305334 12 17049863577761733672
107951 10 18336836402135113030
108634 29 18196377150562079438
1100329 8 18337384955485180762
12592029 89 18409450280294825969
12644460 14 18267596714902384177
12788726 201 17468486262049123326
13135754 10 17316213715475903442
13140716 1 18409442579186660818
138480 1 17978223864106338794
146900 427 18342187622469699387
14790565 3 18338519741426319881
14866123 147 18194113251414539074
14931854 50 18268167370159030022
14955137 171 18124030122957782114
15475509 35 17462599142646080969
15927050 60 18339920514734025727
19591789 44 18411981381515115669
20197701 30 18341891930787475661
20465049 17 18340502079412720566
20567600 347 18333733519870071146
20642791 13 17767110274220340396
20832881 197 18129676196722726788
21421861 104 18050863121470695985
21796203 349 17473016928782323635
22393880 68 18342741767418813285
22956985 138 17896874357321329515
23366157 5 18116720612505156245
23558518 356 17907569586213137708
23559900 14 17977937995847556707
25147074 1 18130216053254266733
3298306 158 18409164402865886237
3380486 77 16894766523593221009
43471831 8 18409725158249300913
57091435 65 18265886978347192842
59755656 215 18408039603161975941
6004065 56 16110058457762531894
6138700 20 18270127807854720566
81228 2 17835233828475625444
9709674 26 17986113139625243940

> <PUBCHEM_SHAPE_MULTIPOLES>
490.56
9.41
4.58
1.39
4.48
5.01
-0.24
-7.2
-1.12
-2.38
2.39
-1.45
0.76
-0.38

> <PUBCHEM_SHAPE_SELFOVERLAP>
1077.753

> <PUBCHEM_SHAPE_VOLUME>
264.8

> <PUBCHEM_COORDINATE_TYPE>
2
5
10

$$$$
